24 

C 2.547980 0.728875 0.248434
H 2.626573 0.734612 1.348165
H 3.439428 1.249970 -0.130005
C 2.547980 -0.728875 -0.248435
H 3.439428 -1.249970 0.130005
H 2.626572 -0.734612 -1.348166
C 1.274873 1.494182 -0.160177
H 1.247135 1.619854 -1.255645
H 1.284280 2.504423 0.275431
C 1.274873 -1.494182 0.160177
H 1.247135 -1.619854 1.255645
H 1.284280 -2.504423 -0.275431
C 0.039017 0.716715 0.288904
H 0.082480 0.620955 1.389325
C 0.039017 -0.716715 -0.288903
H 0.082480 -0.620955 -1.389325
C -1.354269 -1.243784 0.078116
H -1.378188 -1.606430 1.119957
H -1.743217 -2.048316 -0.557939
C -1.354269 1.243784 -0.078115
H -1.378188 1.606430 -1.119957
H -1.743217 2.048316 0.557940
C -2.250884 0.000000 0.000000
O -3.462861 0.000000 -0.000001
